7
# CELL(abcABC):   13.38377    13.38377    13.38377    90.00000    90.00000    90.00000  Traj: positions{angstrom} Step:           0  Bead:       0 
       O  5.51286e-01 -9.64296e-01 -1.94814e-01
       O  2.90424e+00 -8.16428e-01  1.78604e-01
       H  1.76418e-01 -1.37048e+00 -1.03660e+00
       H  1.74130e+00 -9.02619e-01 -9.53237e-02
       H  3.27767e+00 -1.55342e+00  6.90040e-01
       H  3.54507e+00 -6.79117e-01 -7.76664e-01
       H  7.76689e-02 -1.07722e-01  2.97467e-02
7
# CELL(abcABC):   13.38377    13.38377    13.38377    90.00000    90.00000    90.00000  Traj: positions{angstrom} Step:           0  Bead:       1 
       O  5.52323e-01 -9.66229e-01 -2.00057e-01
       O  2.90579e+00 -8.23225e-01  1.71010e-01
       H  1.81293e-01 -1.34286e+00 -1.04392e+00
       H  1.74168e+00 -9.04340e-01 -9.58522e-02
       H  3.27914e+00 -1.56413e+00  6.75058e-01
       H  3.53739e+00 -6.58794e-01 -7.22052e-01
       H  7.30646e-02 -1.30227e-01  4.34222e-02
7
# CELL(abcABC):   13.38377    13.38377    13.38377    90.00000    90.00000    90.00000  Traj: positions{angstrom} Step:           0  Bead:       2 
       O  5.55274e-01 -9.71734e-01 -2.14987e-01
       O  2.91021e+00 -8.42579e-01  1.49384e-01
       H  1.95178e-01 -1.26423e+00 -1.06475e+00
       H  1.74278e+00 -9.09243e-01 -9.73571e-02
       H  3.28333e+00 -1.59465e+00  6.32393e-01
       H  3.51551e+00 -6.00919e-01 -5.66530e-01
       H  5.99526e-02 -1.94316e-01  8.23666e-02
7
# CELL(abcABC):   13.38377    13.38377    13.38377    90.00000    90.00000    90.00000  Traj: positions{angstrom} Step:           0  Bead:       3 
       O  5.59691e-01 -9.79973e-01 -2.37332e-01
       O  2.91682e+00 -8.71545e-01  1.17018e-01
       H  2.15958e-01 -1.14655e+00 -1.09593e+00
       H  1.74442e+00 -9.16580e-01 -9.96093e-02
       H  3.28960e+00 -1.64032e+00  5.68540e-01
       H  3.48277e+00 -5.14303e-01 -3.33775e-01
       H  4.03291e-02 -2.90232e-01  1.40651e-01
7
# CELL(abcABC):   13.38377    13.38377    13.38377    90.00000    90.00000    90.00000  Traj: positions{angstrom} Step:           0  Bead:       4 
       O  5.64901e-01 -9.89692e-01 -2.63689e-01
       O  2.92461e+00 -9.05712e-01  7.88399e-02
       H  2.40469e-01 -1.00773e+00 -1.13270e+00
       H  1.74635e+00 -9.25235e-01 -1.02266e-01
       H  3.29700e+00 -1.69420e+00  4.93220e-01
       H  3.44414e+00 -4.12133e-01 -5.92225e-02
       H  1.71817e-02 -4.03372e-01  2.09402e-01
7
# CELL(abcABC):   13.38377    13.38377    13.38377    90.00000    90.00000    90.00000  Traj: positions{angstrom} Step:           0  Bead:       5 
       O  5.70111e-01 -9.99411e-01 -2.90046e-01
       O  2.93241e+00 -9.39879e-01  4.06617e-02
       H  2.64980e-01 -8.68913e-01 -1.16947e+00
       H  1.74829e+00 -9.33891e-01 -1.04923e-01
       H  3.30440e+00 -1.74808e+00  4.17900e-01
       H  3.40551e+00 -3.09963e-01  2.15330e-01
       H -5.96574e-03 -5.16512e-01  2.78154e-01
7
# CELL(abcABC):   13.38377    13.38377    13.38377    90.00000    90.00000    90.00000  Traj: positions{angstrom} Step:           0  Bead:       6 
       O  5.74528e-01 -1.00765e+00 -3.12391e-01
       O  2.93902e+00 -9.68845e-01  8.29584e-03
       H  2.85760e-01 -7.51230e-01 -1.20065e+00
       H  1.74993e+00 -9.41228e-01 -1.07175e-01
       H  3.31067e+00 -1.79375e+00  3.54047e-01
       H  3.37277e+00 -2.23347e-01  4.48085e-01
       H -2.55892e-02 -6.12428e-01  3.36438e-01
7
# CELL(abcABC):   13.38377    13.38377    13.38377    90.00000    90.00000    90.00000  Traj: positions{angstrom} Step:           0  Bead:       7 
       O  5.77479e-01 -1.01316e+00 -3.27321e-01
       O  2.94344e+00 -9.88199e-01 -1.33304e-02
       H  2.99645e-01 -6.72597e-01 -1.22148e+00
       H  1.75103e+00 -9.46131e-01 -1.08680e-01
       H  3.31486e+00 -1.82427e+00  3.11382e-01
       H  3.35089e+00 -1.65472e-01  6.03607e-01
       H -3.87012e-02 -6.76517e-01  3.75382e-01
7
# CELL(abcABC):   13.38377    13.38377    13.38377    90.00000    90.00000    90.00000  Traj: positions{angstrom} Step:           0  Bead:       8 
       O  5.78516e-01 -1.01509e+00 -3.32564e-01
       O  2.94499e+00 -9.94996e-01 -2.09245e-02
       H  3.04520e-01 -6.44984e-01 -1.22880e+00
       H  1.75141e+00 -9.47852e-01 -1.09208e-01
       H  3.31633e+00 -1.83498e+00  2.96400e-01
       H  3.34321e+00 -1.45149e-01  6.58219e-01
       H -4.33055e-02 -6.99022e-01  3.89058e-01
