7
# CELL(abcABC):   13.38377    13.38377    13.38377    90.00000    90.00000    90.00000  Traj: positions{angstrom} Step:           0  Bead:       8 
       O  5.40450e-01 -9.74850e-01 -2.16580e-01
       O  2.92484e+00 -8.39252e-01  1.52397e-01
       H  1.83860e-01 -1.25804e+00 -1.07875e+00
       H  1.74329e+00 -9.09278e-01 -1.00395e-01
       H  3.29707e+00 -1.59324e+00  6.47253e-01
       H  3.53033e+00 -6.08138e-01 -5.76078e-01
       H  4.23316e-02 -1.94860e-01  9.22810e-02
7
# CELL(abcABC):   13.38377    13.38377    13.38377    90.00000    90.00000    90.00000  Traj: positions{angstrom} Step:           2  Bead:       8 
       O  5.39742e-01 -9.74155e-01 -2.16865e-01
       O  2.92503e+00 -8.39916e-01  1.52114e-01
       H  1.85786e-01 -1.25800e+00 -1.08040e+00
       H  1.74398e+00 -9.09316e-01 -1.02507e-01
       H  3.29720e+00 -1.59478e+00  6.46624e-01
       H  3.53264e+00 -6.09057e-01 -5.73872e-01
       H  3.92810e-02 -1.97452e-01  9.09800e-02
