7
# CELL(abcABC):   25.29166    25.29166    25.29166    90.00000    90.00000    90.00000  Traj: v_centroid Step:           0  Bead:       0 
       O  0.00000e+00  0.00000e+00  0.00000e+00
       O  0.00000e+00  0.00000e+00  0.00000e+00
       H  0.00000e+00  0.00000e+00  0.00000e+00
       H  0.00000e+00  0.00000e+00  0.00000e+00
       H  0.00000e+00  0.00000e+00  0.00000e+00
       H  0.00000e+00  0.00000e+00  0.00000e+00
       H  0.00000e+00  0.00000e+00  0.00000e+00
7
# CELL(abcABC):   25.29166    25.29166    25.29166    90.00000    90.00000    90.00000  Traj: v_centroid Step:           2  Bead:       0 
       O  6.83767e-06 -3.96443e-07  7.30236e-07
       O -4.44406e-06 -2.21552e-05 -9.41048e-06
       H -2.60668e-06  1.94808e-04  7.02120e-05
       H  9.24566e-06  4.12584e-06  9.25016e-05
       H -3.08071e-05  6.69592e-05 -1.39991e-04
       H -4.38489e-05  9.15019e-05  1.32373e-04
       H  3.00223e-05  5.75361e-07 -1.73113e-05
