7
# CELL(abcABC):   25.29166    25.29166    25.29166    90.00000    90.00000    90.00000  Traj: v_centroid Step:           0  Bead:       0 
       O  0.00000e+00  0.00000e+00  0.00000e+00
       O  0.00000e+00  0.00000e+00  0.00000e+00
       H  0.00000e+00  0.00000e+00  0.00000e+00
       H  0.00000e+00  0.00000e+00  0.00000e+00
       H  0.00000e+00  0.00000e+00  0.00000e+00
       H  0.00000e+00  0.00000e+00  0.00000e+00
       H  0.00000e+00  0.00000e+00  0.00000e+00
7
# CELL(abcABC):   25.29166    25.29166    25.29166    90.00000    90.00000    90.00000  Traj: v_centroid Step:           0  Bead:       0 
       O  0.00000e+00  0.00000e+00  0.00000e+00
       O  0.00000e+00  0.00000e+00  0.00000e+00
       H  0.00000e+00  0.00000e+00  0.00000e+00
       H  0.00000e+00  0.00000e+00  0.00000e+00
       H  0.00000e+00  0.00000e+00  0.00000e+00
       H  0.00000e+00  0.00000e+00  0.00000e+00
       H  0.00000e+00  0.00000e+00  0.00000e+00
7
# CELL(abcABC):   25.29166    25.29166    25.29166    90.00000    90.00000    90.00000  Traj: v_centroid Step:           0  Bead:       0 
       O  0.00000e+00  0.00000e+00  0.00000e+00
       O  0.00000e+00  0.00000e+00  0.00000e+00
       H  0.00000e+00  0.00000e+00  0.00000e+00
       H  0.00000e+00  0.00000e+00  0.00000e+00
       H  0.00000e+00  0.00000e+00  0.00000e+00
       H  0.00000e+00  0.00000e+00  0.00000e+00
       H  0.00000e+00  0.00000e+00  0.00000e+00
7
# CELL(abcABC):   25.29166    25.29166    25.29166    90.00000    90.00000    90.00000  Traj: v_centroid Step:           0  Bead:       0 
       O  0.00000e+00  0.00000e+00  0.00000e+00
       O  0.00000e+00  0.00000e+00  0.00000e+00
       H  0.00000e+00  0.00000e+00  0.00000e+00
       H  0.00000e+00  0.00000e+00  0.00000e+00
       H  0.00000e+00  0.00000e+00  0.00000e+00
       H  0.00000e+00  0.00000e+00  0.00000e+00
       H  0.00000e+00  0.00000e+00  0.00000e+00
7
# CELL(abcABC):   25.29166    25.29166    25.29166    90.00000    90.00000    90.00000  Traj: v_centroid Step:           0  Bead:       0 
       O  0.00000e+00  0.00000e+00  0.00000e+00
       O  0.00000e+00  0.00000e+00  0.00000e+00
       H  0.00000e+00  0.00000e+00  0.00000e+00
       H  0.00000e+00  0.00000e+00  0.00000e+00
       H  0.00000e+00  0.00000e+00  0.00000e+00
       H  0.00000e+00  0.00000e+00  0.00000e+00
       H  0.00000e+00  0.00000e+00  0.00000e+00
7
# CELL(abcABC):   25.29166    25.29166    25.29166    90.00000    90.00000    90.00000  Traj: v_centroid Step:           0  Bead:       0 
       O  0.00000e+00  0.00000e+00  0.00000e+00
       O  0.00000e+00  0.00000e+00  0.00000e+00
       H  0.00000e+00  0.00000e+00  0.00000e+00
       H  0.00000e+00  0.00000e+00  0.00000e+00
       H  0.00000e+00  0.00000e+00  0.00000e+00
       H  0.00000e+00  0.00000e+00  0.00000e+00
       H  0.00000e+00  0.00000e+00  0.00000e+00
7
# CELL(abcABC):   25.29166    25.29166    25.29166    90.00000    90.00000    90.00000  Traj: v_centroid Step:           0  Bead:       0 
       O  0.00000e+00  0.00000e+00  0.00000e+00
       O  0.00000e+00  0.00000e+00  0.00000e+00
       H  0.00000e+00  0.00000e+00  0.00000e+00
       H  0.00000e+00  0.00000e+00  0.00000e+00
       H  0.00000e+00  0.00000e+00  0.00000e+00
       H  0.00000e+00  0.00000e+00  0.00000e+00
       H  0.00000e+00  0.00000e+00  0.00000e+00
7
# CELL(abcABC):   25.29166    25.29166    25.29166    90.00000    90.00000    90.00000  Traj: v_centroid Step:           0  Bead:       0 
       O  0.00000e+00  0.00000e+00  0.00000e+00
       O  0.00000e+00  0.00000e+00  0.00000e+00
       H  0.00000e+00  0.00000e+00  0.00000e+00
       H  0.00000e+00  0.00000e+00  0.00000e+00
       H  0.00000e+00  0.00000e+00  0.00000e+00
       H  0.00000e+00  0.00000e+00  0.00000e+00
       H  0.00000e+00  0.00000e+00  0.00000e+00
7
# CELL(abcABC):   25.29166    25.29166    25.29166    90.00000    90.00000    90.00000  Traj: v_centroid Step:           0  Bead:       0 
       O  0.00000e+00  0.00000e+00  0.00000e+00
       O  0.00000e+00  0.00000e+00  0.00000e+00
       H  0.00000e+00  0.00000e+00  0.00000e+00
       H  0.00000e+00  0.00000e+00  0.00000e+00
       H  0.00000e+00  0.00000e+00  0.00000e+00
       H  0.00000e+00  0.00000e+00  0.00000e+00
       H  0.00000e+00  0.00000e+00  0.00000e+00
7
# CELL(abcABC):   25.29166    25.29166    25.29166    90.00000    90.00000    90.00000  Traj: v_centroid Step:           0  Bead:       0 
       O  0.00000e+00  0.00000e+00  0.00000e+00
       O  0.00000e+00  0.00000e+00  0.00000e+00
       H  0.00000e+00  0.00000e+00  0.00000e+00
       H  0.00000e+00  0.00000e+00  0.00000e+00
       H  0.00000e+00  0.00000e+00  0.00000e+00
       H  0.00000e+00  0.00000e+00  0.00000e+00
       H  0.00000e+00  0.00000e+00  0.00000e+00
7
# CELL(abcABC):   25.29166    25.29166    25.29166    90.00000    90.00000    90.00000  Traj: v_centroid Step:           0  Bead:       0 
       O  0.00000e+00  0.00000e+00  0.00000e+00
       O  0.00000e+00  0.00000e+00  0.00000e+00
       H  0.00000e+00  0.00000e+00  0.00000e+00
       H  0.00000e+00  0.00000e+00  0.00000e+00
       H  0.00000e+00  0.00000e+00  0.00000e+00
       H  0.00000e+00  0.00000e+00  0.00000e+00
       H  0.00000e+00  0.00000e+00  0.00000e+00
7
# CELL(abcABC):   25.29166    25.29166    25.29166    90.00000    90.00000    90.00000  Traj: v_centroid Step:           0  Bead:       0 
       O  0.00000e+00  0.00000e+00  0.00000e+00
       O  0.00000e+00  0.00000e+00  0.00000e+00
       H  0.00000e+00  0.00000e+00  0.00000e+00
       H  0.00000e+00  0.00000e+00  0.00000e+00
       H  0.00000e+00  0.00000e+00  0.00000e+00
       H  0.00000e+00  0.00000e+00  0.00000e+00
       H  0.00000e+00  0.00000e+00  0.00000e+00
7
# CELL(abcABC):   25.29166    25.29166    25.29166    90.00000    90.00000    90.00000  Traj: v_centroid Step:           0  Bead:       0 
       O  0.00000e+00  0.00000e+00  0.00000e+00
       O  0.00000e+00  0.00000e+00  0.00000e+00
       H  0.00000e+00  0.00000e+00  0.00000e+00
       H  0.00000e+00  0.00000e+00  0.00000e+00
       H  0.00000e+00  0.00000e+00  0.00000e+00
       H  0.00000e+00  0.00000e+00  0.00000e+00
       H  0.00000e+00  0.00000e+00  0.00000e+00
7
# CELL(abcABC):   25.29166    25.29166    25.29166    90.00000    90.00000    90.00000  Traj: v_centroid Step:           0  Bead:       0 
       O  0.00000e+00  0.00000e+00  0.00000e+00
       O  0.00000e+00  0.00000e+00  0.00000e+00
       H  0.00000e+00  0.00000e+00  0.00000e+00
       H  0.00000e+00  0.00000e+00  0.00000e+00
       H  0.00000e+00  0.00000e+00  0.00000e+00
       H  0.00000e+00  0.00000e+00  0.00000e+00
       H  0.00000e+00  0.00000e+00  0.00000e+00
7
# CELL(abcABC):   25.29166    25.29166    25.29166    90.00000    90.00000    90.00000  Traj: v_centroid Step:           0  Bead:       0 
       O  0.00000e+00  0.00000e+00  0.00000e+00
       O  0.00000e+00  0.00000e+00  0.00000e+00
       H  0.00000e+00  0.00000e+00  0.00000e+00
       H  0.00000e+00  0.00000e+00  0.00000e+00
       H  0.00000e+00  0.00000e+00  0.00000e+00
       H  0.00000e+00  0.00000e+00  0.00000e+00
       H  0.00000e+00  0.00000e+00  0.00000e+00
7
# CELL(abcABC):   25.29166    25.29166    25.29166    90.00000    90.00000    90.00000  Traj: v_centroid Step:           0  Bead:       0 
       O  0.00000e+00  0.00000e+00  0.00000e+00
       O  0.00000e+00  0.00000e+00  0.00000e+00
       H  0.00000e+00  0.00000e+00  0.00000e+00
       H  0.00000e+00  0.00000e+00  0.00000e+00
       H  0.00000e+00  0.00000e+00  0.00000e+00
       H  0.00000e+00  0.00000e+00  0.00000e+00
       H  0.00000e+00  0.00000e+00  0.00000e+00
7
# CELL(abcABC):   25.29166    25.29166    25.29166    90.00000    90.00000    90.00000  Traj: v_centroid Step:           0  Bead:       0 
       O  0.00000e+00  0.00000e+00  0.00000e+00
       O  0.00000e+00  0.00000e+00  0.00000e+00
       H  0.00000e+00  0.00000e+00  0.00000e+00
       H  0.00000e+00  0.00000e+00  0.00000e+00
       H  0.00000e+00  0.00000e+00  0.00000e+00
       H  0.00000e+00  0.00000e+00  0.00000e+00
       H  0.00000e+00  0.00000e+00  0.00000e+00
7
# CELL(abcABC):   25.29166    25.29166    25.29166    90.00000    90.00000    90.00000  Traj: v_centroid Step:           0  Bead:       0 
       O  0.00000e+00  0.00000e+00  0.00000e+00
       O  0.00000e+00  0.00000e+00  0.00000e+00
       H  0.00000e+00  0.00000e+00  0.00000e+00
       H  0.00000e+00  0.00000e+00  0.00000e+00
       H  0.00000e+00  0.00000e+00  0.00000e+00
       H  0.00000e+00  0.00000e+00  0.00000e+00
       H  0.00000e+00  0.00000e+00  0.00000e+00
7
# CELL(abcABC):   25.29166    25.29166    25.29166    90.00000    90.00000    90.00000  Traj: v_centroid Step:           0  Bead:       0 
       O  0.00000e+00  0.00000e+00  0.00000e+00
       O  0.00000e+00  0.00000e+00  0.00000e+00
       H  0.00000e+00  0.00000e+00  0.00000e+00
       H  0.00000e+00  0.00000e+00  0.00000e+00
       H  0.00000e+00  0.00000e+00  0.00000e+00
       H  0.00000e+00  0.00000e+00  0.00000e+00
       H  0.00000e+00  0.00000e+00  0.00000e+00
7
# CELL(abcABC):   25.29166    25.29166    25.29166    90.00000    90.00000    90.00000  Traj: v_centroid Step:           0  Bead:       0 
       O  0.00000e+00  0.00000e+00  0.00000e+00
       O  0.00000e+00  0.00000e+00  0.00000e+00
       H  0.00000e+00  0.00000e+00  0.00000e+00
       H  0.00000e+00  0.00000e+00  0.00000e+00
       H  0.00000e+00  0.00000e+00  0.00000e+00
       H  0.00000e+00  0.00000e+00  0.00000e+00
       H  0.00000e+00  0.00000e+00  0.00000e+00
7
# CELL(abcABC):   25.29166    25.29166    25.29166    90.00000    90.00000    90.00000  Traj: v_centroid Step:           0  Bead:       0 
       O  0.00000e+00  0.00000e+00  0.00000e+00
       O  0.00000e+00  0.00000e+00  0.00000e+00
       H  0.00000e+00  0.00000e+00  0.00000e+00
       H  0.00000e+00  0.00000e+00  0.00000e+00
       H  0.00000e+00  0.00000e+00  0.00000e+00
       H  0.00000e+00  0.00000e+00  0.00000e+00
       H  0.00000e+00  0.00000e+00  0.00000e+00
7
# CELL(abcABC):   25.29166    25.29166    25.29166    90.00000    90.00000    90.00000  Traj: v_centroid Step:           0  Bead:       0 
       O  0.00000e+00  0.00000e+00  0.00000e+00
       O  0.00000e+00  0.00000e+00  0.00000e+00
       H  0.00000e+00  0.00000e+00  0.00000e+00
       H  0.00000e+00  0.00000e+00  0.00000e+00
       H  0.00000e+00  0.00000e+00  0.00000e+00
       H  0.00000e+00  0.00000e+00  0.00000e+00
       H  0.00000e+00  0.00000e+00  0.00000e+00
7
# CELL(abcABC):   25.29166    25.29166    25.29166    90.00000    90.00000    90.00000  Traj: v_centroid Step:           0  Bead:       0 
       O  0.00000e+00  0.00000e+00  0.00000e+00
       O  0.00000e+00  0.00000e+00  0.00000e+00
       H  0.00000e+00  0.00000e+00  0.00000e+00
       H  0.00000e+00  0.00000e+00  0.00000e+00
       H  0.00000e+00  0.00000e+00  0.00000e+00
       H  0.00000e+00  0.00000e+00  0.00000e+00
       H  0.00000e+00  0.00000e+00  0.00000e+00
