7
# CELL(abcABC):   13.38377    13.38377    13.38377    90.00000    90.00000    90.00000  Traj: positions{angstrom} Step:           0  Bead:       7 
       O  5.40450e-01 -9.74850e-01 -2.16580e-01
       O  2.92484e+00 -8.39252e-01  1.52397e-01
       H  1.83860e-01 -1.25804e+00 -1.07875e+00
       H  1.74329e+00 -9.09278e-01 -1.00395e-01
       H  3.29707e+00 -1.59324e+00  6.47253e-01
       H  3.53033e+00 -6.08138e-01 -5.76078e-01
       H  4.23316e-02 -1.94860e-01  9.22810e-02
7
# CELL(abcABC):   13.38377    13.38377    13.38377    90.00000    90.00000    90.00000  Traj: positions{angstrom} Step:           2  Bead:       7 
       O  5.40622e-01 -9.74549e-01 -2.16321e-01
       O  2.92507e+00 -8.39902e-01  1.53073e-01
       H  1.87905e-01 -1.25953e+00 -1.07875e+00
       H  1.74648e+00 -9.06232e-01 -1.00354e-01
       H  3.29407e+00 -1.59248e+00  6.47674e-01
       H  3.53134e+00 -6.06922e-01 -5.74017e-01
       H  3.84024e-02 -1.92386e-01  9.26013e-02
