7
# CELL(abcABC):   25.29166    25.29166    25.29166    90.00000    90.00000    90.00000  Traj: x_centroid Step:           0  Bead:       0 
       O  1.02130e+00 -1.84220e+00 -4.09276e-01
       O  5.52715e+00 -1.58596e+00  2.87988e-01
       H  3.47444e-01 -2.37735e+00 -2.03854e+00
       H  3.29434e+00 -1.71829e+00 -1.89719e-01
       H  6.23055e+00 -3.01079e+00  1.22313e+00
       H  6.67136e+00 -1.14921e+00 -1.08863e+00
       H  7.99951e-02 -3.68232e-01  1.74386e-01
7
# CELL(abcABC):   25.29166    25.29166    25.29166    90.00000    90.00000    90.00000  Traj: x_centroid Step:           2  Bead:       0 
       O  1.02141e+00 -1.84214e+00 -4.09312e-01
       O  5.52705e+00 -1.58622e+00  2.88041e-01
       H  3.47686e-01 -2.37569e+00 -2.03772e+00
       H  3.29419e+00 -1.71889e+00 -1.88682e-01
       H  6.23007e+00 -3.00989e+00  1.22116e+00
       H  6.67222e+00 -1.14824e+00 -1.08837e+00
       H  7.93834e-02 -3.67916e-01  1.73959e-01
