7
# CELL(abcABC):   25.29166    25.29166    25.29166    90.00000    90.00000    90.00000  Traj: x_centroid{angstrom} Step:           0  Bead:       0 
       O  5.40450e-01 -9.74850e-01 -2.16580e-01
       O  2.92484e+00 -8.39252e-01  1.52397e-01
       H  1.83860e-01 -1.25804e+00 -1.07875e+00
       H  1.74329e+00 -9.09278e-01 -1.00395e-01
       H  3.29707e+00 -1.59324e+00  6.47253e-01
       H  3.53033e+00 -6.08138e-01 -5.76078e-01
       H  4.23316e-02 -1.94860e-01  9.22810e-02
7
# CELL(abcABC):   25.29166    25.29166    25.29166    90.00000    90.00000    90.00000  Traj: x_centroid{angstrom} Step:           2  Bead:       0 
       O  5.40508e-01 -9.74820e-01 -2.16599e-01
       O  2.92479e+00 -8.39391e-01  1.52425e-01
       H  1.83988e-01 -1.25716e+00 -1.07831e+00
       H  1.74321e+00 -9.09595e-01 -9.98460e-02
       H  3.29681e+00 -1.59277e+00  6.46209e-01
       H  3.53079e+00 -6.07622e-01 -5.75939e-01
       H  4.20079e-02 -1.94693e-01  9.20553e-02
