7
# CELL(abcABC):   13.38377    13.38377    13.38377    90.00000    90.00000    90.00000  Traj: positions{angstrom} Step:           0  Bead:      11 
       O  5.40450e-01 -9.74850e-01 -2.16580e-01
       O  2.92484e+00 -8.39252e-01  1.52397e-01
       H  1.83860e-01 -1.25804e+00 -1.07875e+00
       H  1.74329e+00 -9.09278e-01 -1.00395e-01
       H  3.29707e+00 -1.59324e+00  6.47253e-01
       H  3.53033e+00 -6.08138e-01 -5.76078e-01
       H  4.23316e-02 -1.94860e-01  9.22810e-02
7
# CELL(abcABC):   13.38377    13.38377    13.38377    90.00000    90.00000    90.00000  Traj: positions{angstrom} Step:           2  Bead:      11 
       O  5.40935e-01 -9.75430e-01 -2.17153e-01
       O  2.92553e+00 -8.39638e-01  1.52223e-01
       H  1.82023e-01 -1.25685e+00 -1.07723e+00
       H  1.74398e+00 -9.12853e-01 -9.95782e-02
       H  3.29735e+00 -1.58842e+00  6.48321e-01
       H  3.53278e+00 -6.08647e-01 -5.75009e-01
       H  4.48362e-02 -1.96424e-01  9.36967e-02
